OPT_V10/Two_days_MCY3_MIQCPM1/powerflow_results_t26.txt
Pandapower Network Debug Info
==================================================

BUS:
       vm_pu  va_degree      p_mw    q_mvar
0   0.992160   0.121466  0.001179  0.001073
1   0.987128   0.217557  0.001563  0.002381
2   0.982571   0.303788  0.002295  0.003403
3   0.988116   0.182261  0.002966  0.003871
4   0.999879   0.000163  0.010884  0.008908
5   0.999865   0.000125  0.012403  0.007225
6   0.999853   0.000140  0.014354  0.011724
7   0.999925   0.000229  0.000000  0.000000
8   0.999925   0.000236  0.000000  0.000000
9   1.000000   0.000000 -0.045818 -0.043705
10  1.000000   0.000006  0.000000  0.000000
--------------------------------------------------

LINE:
   p_from_mw  q_from_mvar   p_to_mw  q_to_mvar         pl_mw       ql_mvar  i_from_ka   i_to_ka      i_ka  vm_from_pu  va_from_degree  vm_to_pu  va_to_degree  loading_percent
0   0.045808     0.039705 -0.045804  -0.039702  3.594479e-06  2.802675e-06   0.002333  0.002333  0.002333    1.000000        0.000006  0.999925      0.000229         1.014470
1   0.037644     0.027859 -0.037642  -0.027858  1.696188e-06  1.322546e-06   0.001803  0.001803  0.001803    0.999925        0.000229  0.999879      0.000163         0.783769
2   0.008151     0.010843 -0.008065  -0.010776  8.607809e-05  6.711650e-05   0.019581  0.019581  0.019581    0.999925        0.000236  0.992160      0.121466         8.513431
3  -0.026757    -0.018949  0.026757   0.018949  3.718613e-07  2.899464e-07   0.001262  0.001262  0.001262    0.999865        0.000125  0.999879      0.000163         0.548762
4  -0.014354    -0.011724  0.014354   0.011724  1.680289e-07  1.310149e-07   0.000713  0.000713  0.000713    0.999853        0.000140  0.999865      0.000125         0.310190
5  -0.003874    -0.005797  0.003903   0.005820  2.951302e-05  2.301179e-05   0.010194  0.010194  0.010194    0.987128        0.217557  0.992160      0.121466         4.432361
6  -0.002966    -0.003871  0.002982   0.003883  1.626141e-05  1.267929e-05   0.007123  0.007123  0.007123    0.988116        0.182261  0.992160      0.121466         3.097027
7  -0.002295    -0.003403  0.002311   0.003416  1.578757e-05  1.230983e-05   0.006030  0.006030  0.006030    0.982571        0.303788  0.987128      0.217557         2.621696
--------------------------------------------------

TRAFO:
    p_hv_mw  q_hv_mvar   p_lv_mw  q_lv_mvar    pl_mw  ql_mvar   i_hv_ka   i_lv_ka  vm_hv_pu  va_hv_degree  vm_lv_pu  va_lv_degree  loading_percent
0  0.008161   0.011843 -0.008151  -0.010843  0.00001    0.001  0.000554  0.019581  0.999925      0.000229  0.999925      0.000236         0.143835
1  0.045818   0.043705 -0.045808  -0.039705  0.00001    0.004  0.000522  0.002333  1.000000      0.000000  1.000000      0.000006         0.158299
--------------------------------------------------
